<?xml version="1.0" encoding="UTF-8"?>

<!-- generated on 2024-06-27 23:47:48 by Eclipse SUMO netedit Version 1.20.0
<configuration xmlns:xsi="http://www.w3.org/2001/XMLSchema-instance" xsi:noNamespaceSchemaLocation="http://sumo.dlr.de/xsd/neteditConfiguration.xsd">

    <input>
        <sumo-net-file value="/home/rnagaiya/Hackathon/angryBirds/angle_net.net.xml"/>
    </input>

    <output>
        <output-file value="/home/rnagaiya/Hackathon/angryBirds/angle_net.net.xml"/>
    </output>

    <processing>
        <geometry.min-radius.fix.railways value="false"/>
        <geometry.max-grade.fix value="false"/>
        <offset.disable-normalization value="true"/>
        <lefthand value="0"/>
    </processing>

    <junctions>
        <no-turnarounds value="true"/>
        <junctions.corner-detail value="5"/>
        <junctions.limit-turn-speed value="5.50"/>
        <rectangular-lane-cut value="0"/>
    </junctions>

    <pedestrian>
        <walkingareas value="0"/>
    </pedestrian>

</configuration>
-->

<net version="1.20" junctionCornerDetail="5" limitTurnSpeed="5.50" xmlns:xsi="http://www.w3.org/2001/XMLSchema-instance" xsi:noNamespaceSchemaLocation="http://sumo.dlr.de/xsd/net_file.xsd">

    <location netOffset="0.00,0.00" convBoundary="-24.65,21.70,118.99,98.82" origBoundary="-10000000000.00,-10000000000.00,10000000000.00,10000000000.00" projParameter="!"/>

    <edge id=":J1_0" function="internal">
        <lane id=":J1_0_0" index="0" speed="13.89" length="11.53" shape="17.82,83.67 29.34,83.57"/>
    </edge>
    <edge id=":J1_1" function="internal">
        <lane id=":J1_1_0" index="0" speed="5.60" length="8.53" shape="17.82,83.67 20.52,83.98 22.11,84.93 22.60,86.51 21.99,88.73"/>
    </edge>
    <edge id=":J2_0" function="internal">
        <lane id=":J2_0_0" index="0" speed="13.89" length="0.30" shape="71.30,83.07 71.59,83.07"/>
    </edge>
    <edge id=":J3_0" function="internal">
        <lane id=":J3_0_0" index="0" speed="3.90" length="2.56" shape="115.57,82.74 116.27,82.64 116.76,82.34 117.06,81.84 117.16,81.15"/>
    </edge>
    <edge id=":J8_0" function="internal">
        <lane id=":J8_0_0" index="0" speed="4.41" length="6.50" shape="21.90,88.91 21.24,90.81 21.48,91.63 22.63,91.37 24.69,90.03"/>
    </edge>

    <edge id="E0" from="J0" to="J1" priority="-1">
        <lane id="E0_0" index="0" speed="13.89" length="42.47" shape="-24.65,83.78 17.82,83.67"/>
    </edge>
    <edge id="E1" from="J1" to="J2" priority="-1">
        <lane id="E1_0" index="0" speed="13.89" length="41.96" shape="29.34,83.57 71.30,83.07"/>
    </edge>
    <edge id="E2" from="J2" to="J3" priority="-1">
        <lane id="E2_0" index="0" speed="13.89" length="43.98" shape="71.59,83.07 115.57,82.74"/>
    </edge>
    <edge id="E3" from="J3" to="J4" priority="-1">
        <lane id="E3_0" index="0" speed="13.89" length="55.55" shape="117.16,81.15 117.38,25.60"/>
    </edge>
    <edge id="E8" from="J1" to="J8" priority="-1">
        <lane id="E8_0" index="0" speed="13.89" length="0.20" shape="21.99,88.73 21.90,88.91"/>
    </edge>
    <edge id="E9" from="J8" to="J4" priority="-1">
        <lane id="E9_0" index="0" speed="13.89" length="110.94" shape="24.69,90.03 113.62,23.71"/>
    </edge>

    <junction id="J0" type="dead_end" x="-24.65" y="85.38" incLanes="" intLanes="" shape="-24.65,85.38 -24.66,82.18"/>
    <junction id="J1" type="priority" x="21.82" y="85.26" incLanes="E0_0" intLanes=":J1_0_0 :J1_1_0" shape="29.36,85.17 29.32,81.97 17.81,82.07 17.82,85.27 19.86,85.67 20.40,86.17 20.63,86.88 20.55,87.78 20.15,88.89 23.06,90.23 24.78,87.44 25.79,86.46 26.88,85.75 28.07,85.32">
        <request index="0" response="00" foes="00" cont="0"/>
        <request index="1" response="00" foes="00" cont="0"/>
    </junction>
    <junction id="J2" type="priority" x="71.46" y="84.67" incLanes="E1_0" intLanes=":J2_0_0" shape="71.61,84.67 71.58,81.47 71.28,81.47 71.31,84.67">
        <request index="0" response="0" foes="0" cont="0"/>
    </junction>
    <junction id="J3" type="priority" x="118.75" y="84.32" incLanes="E2_0" intLanes=":J3_0_0" shape="118.76,81.16 115.56,81.14 115.59,84.34 117.35,83.98 117.96,83.53 118.40,82.92 118.67,82.12">
        <request index="0" response="0" foes="0" cont="0"/>
    </junction>
    <junction id="J4" type="dead_end" x="118.99" y="21.70" incLanes="E9_0 E3_0" intLanes="" shape="112.67,22.43 114.58,24.99 115.25,24.66 115.48,24.69 115.64,24.86 115.74,25.16 115.78,25.59 118.98,25.61 118.81,23.32 118.29,21.74 117.41,20.86 116.18,20.68 114.60,21.20"/>
    <junction id="J8" type="priority" x="15.59" y="98.82" incLanes="E8_0" intLanes=":J8_0_0" shape="25.65,91.32 23.74,88.75 20.83,87.42 19.51,90.69 19.04,92.92 19.42,94.09 20.64,94.22 22.72,93.29">
        <request index="0" response="0" foes="0" cont="0"/>
    </junction>

    <connection from="E0" to="E1" fromLane="0" toLane="0" via=":J1_0_0" dir="s" state="M"/>
    <connection from="E0" to="E8" fromLane="0" toLane="0" via=":J1_1_0" dir="l" state="M"/>
    <connection from="E1" to="E2" fromLane="0" toLane="0" via=":J2_0_0" dir="s" state="M"/>
    <connection from="E2" to="E3" fromLane="0" toLane="0" via=":J3_0_0" dir="r" state="M"/>
    <connection from="E8" to="E9" fromLane="0" toLane="0" via=":J8_0_0" dir="r" state="M"/>

    <connection from=":J1_0" to="E1" fromLane="0" toLane="0" dir="s" state="M"/>
    <connection from=":J1_1" to="E8" fromLane="0" toLane="0" dir="l" state="M"/>
    <connection from=":J2_0" to="E2" fromLane="0" toLane="0" dir="s" state="M"/>
    <connection from=":J3_0" to="E3" fromLane="0" toLane="0" dir="r" state="M"/>
    <connection from=":J8_0" to="E9" fromLane="0" toLane="0" dir="r" state="M"/>

</net>
