<?xml version="1.0" encoding="UTF-8"?>

<!-- generated on 2024-06-27 21:10:24 by Eclipse SUMO GUI Version 1.20.0
-->

<configuration xmlns:xsi="http://www.w3.org/2001/XMLSchema-instance" xsi:noNamespaceSchemaLocation="http://sumo.dlr.de/xsd/sumoConfiguration.xsd">

    <input>
        <net-file value="angle_net.net.xml"/>
    </input>

</configuration>
