<?xml version="1.0" encoding="UTF-8"?>

<!-- generated on 2024-06-28 01:00:48 by Eclipse SUMO netedit Version 1.20.0
-->

<routes xmlns:xsi="http://www.w3.org/2001/XMLSchema-instance" xsi:noNamespaceSchemaLocation="http://sumo.dlr.de/xsd/routes_file.xsd">
    <!-- Routes -->
    <route id="r_0" edges="1404 -1404 -1345 1345 -1345 -1011 1011 -1342 -1093 -1005 1005 1093 -1093 1093 1342 -1342"/>
</routes>
