<?xml version="1.0" encoding="UTF-8"?>

<!-- generated on 2024-06-27 16:30:32 by Eclipse SUMO GUI Version 1.12.0
-->

<configuration xmlns:xsi="http://www.w3.org/2001/XMLSchema-instance" xsi:noNamespaceSchemaLocation="http://sumo.dlr.de/xsd/sumoConfiguration.xsd">

    <input>
        <net-file value="/home/rnagaiya/Hackathon/angryBirds/test_net.net.xml"/>
    </input>

</configuration>
